warhead.pdb
 OpenBabel08312118323D

 20 22  0  0  0  0  0  0  0  0999 V2000
   40.8290  -20.9390  -28.5780 N   0  0  0  0  0  0  0  0  0  0  0  0
   40.2650  -19.9910  -29.5340 C   0  0  0  0  0  0  0  0  0  0  0  0
   41.1210  -19.9810  -30.7750 C   0  0  0  0  0  0  0  0  0  0  0  0
   42.5110  -19.6170  -30.4670 N   0  0  0  0  0  0  0  0  0  0  0  0
   43.2870  -18.8460  -31.3240 C   0  0  0  0  0  0  0  0  0  0  0  0
   44.5580  -19.2760  -31.6890 C   0  0  0  0  0  0  0  0  0  0  0  0
   45.2950  -18.5290  -32.5920 C   0  0  0  0  0  0  0  0  0  0  0  0
   46.6750  -18.8970  -33.0170 C   0  0  0  0  0  0  0  0  0  0  0  0
   47.3470  -19.9410  -32.3820 C   0  0  0  0  0  0  0  0  0  0  0  0
   48.6290  -20.2980  -32.7520 C   0  0  0  0  0  0  0  0  0  0  0  0
   49.2750  -19.6060  -33.7610 C   0  0  0  0  0  0  0  0  0  0  0  0
   48.6520  -18.5600  -34.3950 C   0  0  0  0  0  0  0  0  0  0  0  0
   47.3560  -18.2030  -34.0410 C   0  0  0  0  0  0  0  0  0  0  0  0
   46.7970  -17.1680  -34.7120 O   0  0  0  0  0  0  0  0  0  0  0  0
   44.7960  -17.3980  -33.1030 N   0  0  0  0  0  0  0  0  0  0  0  0
   43.5510  -16.9810  -32.7990 N   0  0  0  0  0  0  0  0  0  0  0  0
   42.7900  -17.6560  -31.9390 C   0  0  0  0  0  0  0  0  0  0  0  0
   41.5970  -17.1060  -31.6950 N   0  0  0  0  0  0  0  0  0  0  0  0
   43.0910  -20.3170  -29.3070 C   0  0  0  0  0  0  0  0  0  0  0  0
   42.1330  -20.4380  -28.1410 C   0  0  0  0  0  0  0  0  0  0  0  0
  1 20  1  0  0  0  0
  2  1  1  0  0  0  0
  3  4  1  0  0  0  0
  3  2  1  0  0  0  0
  4 19  1  0  0  0  0
  5  4  1  0  0  0  0
  6  5  1  0  0  0  0
  7  6  2  0  0  0  0
  8  7  1  0  0  0  0
  8  9  2  0  0  0  0
 10  9  1  0  0  0  0
 11 10  2  0  0  0  0
 12 13  2  0  0  0  0
 12 11  1  0  0  0  0
 13  8  1  0  0  0  0
 14 13  1  0  0  0  0
 15 16  2  0  0  0  0
 15  7  1  0  0  0  0
 16 17  1  0  0  0  0
 17 18  1  0  0  0  0
 17  5  2  0  0  0  0
 19 20  1  0  0  0  0
M  END
$$$$
