warhead.pdb
 OpenBabel05092110383D

 20 22  0  0  0  0  0  0  0  0999 V2000
  -40.2750   19.3990  -28.2390 N   0  0  0  0  0  0  0  0  0  0  0  0
  -39.8130   19.4200  -29.6360 C   0  0  0  0  0  0  0  0  0  0  0  0
  -40.9920   19.3070  -30.6060 C   0  0  0  0  0  0  0  0  0  0  0  0
  -42.1390   18.6590  -29.9620 N   0  0  0  0  0  0  0  0  0  0  0  0
  -42.6650   19.4620  -28.8520 C   0  0  0  0  0  0  0  0  0  0  0  0
  -41.5290   20.1600  -28.1090 C   0  0  0  0  0  0  0  0  0  0  0  0
  -43.0610   18.0010  -30.8250 C   0  0  0  0  0  0  0  0  0  0  0  0
  -44.3550   18.4660  -31.0550 C   0  0  0  0  0  0  0  0  0  0  0  0
  -45.1630   17.7710  -31.9620 C   0  0  0  0  0  0  0  0  0  0  0  0
  -44.7010   16.7090  -32.6360 N   0  0  0  0  0  0  0  0  0  0  0  0
  -43.4640   16.2270  -32.3980 N   0  0  0  0  0  0  0  0  0  0  0  0
  -42.6480   16.8340  -31.5280 C   0  0  0  0  0  0  0  0  0  0  0  0
  -41.4630   16.2320  -31.3680 N   0  0  0  0  0  0  0  0  0  0  0  0
  -46.5390   18.2210  -32.3140 C   0  0  0  0  0  0  0  0  0  0  0  0
  -47.3600   17.4830  -33.1860 C   0  0  0  0  0  0  0  0  0  0  0  0
  -48.6710   17.8950  -33.4460 C   0  0  0  0  0  0  0  0  0  0  0  0
  -49.1720   19.0370  -32.8440 C   0  0  0  0  0  0  0  0  0  0  0  0
  -48.4000   19.7370  -31.9420 C   0  0  0  0  0  0  0  0  0  0  0  0
  -47.0940   19.3410  -31.6850 C   0  0  0  0  0  0  0  0  0  0  0  0
  -46.9040   16.4170  -33.8930 O   0  0  0  0  0  0  0  0  0  0  0  0
  1  6  1  0  0  0  0
  2  1  1  0  0  0  0
  3  4  1  0  0  0  0
  3  2  1  0  0  0  0
  4  5  1  0  0  0  0
  5  6  1  0  0  0  0
  7  4  1  0  0  0  0
  8  7  1  0  0  0  0
  9  8  2  0  0  0  0
 10 11  2  0  0  0  0
 10  9  1  0  0  0  0
 11 12  1  0  0  0  0
 12 13  1  0  0  0  0
 12  7  2  0  0  0  0
 14  9  1  0  0  0  0
 14 19  2  0  0  0  0
 15 14  1  0  0  0  0
 16 15  2  0  0  0  0
 16 17  1  0  0  0  0
 17 18  2  0  0  0  0
 18 19  1  0  0  0  0
 20 15  1  0  0  0  0
M  END
$$$$
